data_global
_chemical_name 'cif'
_chemical_absolute_configuration ' Fe8 Se8'
_symmetry_space_group_name 'P1'
_cell_length_a       6.0880040
_cell_length_b       6.0880040
_cell_length_c       6.0880040
_cell_angle_alpha  90.0000000
_cell_angle_beta  90.0000000
_cell_angle_gamma  90.0000000
_atom_sites_Cartn_tran_matrix_11       6.0880040
_atom_sites_Cartn_tran_matrix_21       0.0000000
_atom_sites_Cartn_tran_matrix_31       0.0000000
_atom_sites_Cartn_tran_matrix_12       0.0000000
_atom_sites_Cartn_tran_matrix_22       6.0880040
_atom_sites_Cartn_tran_matrix_32       0.0000000
_atom_sites_Cartn_tran_matrix_13       0.0000000
_atom_sites_Cartn_tran_matrix_23       0.0000000
_atom_sites_Cartn_tran_matrix_33       6.0880040

loop_
_symmetry_equiv_pos_as_xyz
'x, y, z'

loop_
_atom_site_type_symbol
_atom_site_label
_atom_site_fract_x
_atom_site_fract_y
_atom_site_fract_z
Fe Fe1   0.000000000   0.000000000   0.000000000
Se Se1   0.250000000   0.250000000   0.250000000
Fe Fe2   0.000000000   0.000000000   0.500000000
Se Se2   0.250000000   0.250000000   0.750000000
Fe Fe3   0.000000000   0.500000000   0.000000000
Se Se3   0.250000000   0.750000000   0.250000000
Fe Fe4   0.000000000   0.500000000   0.500000000
Se Se4   0.250000000   0.750000000   0.750000000
Fe Fe5   0.500000000   0.000000000   0.000000000
Se Se5   0.750000000   0.250000000   0.250000000
Fe Fe6   0.500000000   0.000000000   0.500000000
Se Se6   0.750000000   0.250000000   0.750000000
Fe Fe7   0.500000000   0.500000000   0.000000000
Se Se7   0.750000000   0.750000000   0.250000000
Fe Fe8   0.500000000   0.500000000   0.500000000
Se Se8   0.750000000   0.750000000   0.750000000
